[TITLE]
Any Town MOdified. Optimal results

[JUNCTIONS]
;ID              	Elev        	Demand      	Pattern
 20              	6.096       	31.55       	DEM             	;
 30              	15.24       	12.62       	DEM             	;
 110             	15.24       	31.55       	DEM             	;
 70              	15.24       	31.55       	DEM             	;
 60              	15.24       	31.55       	DEM             	;
 90              	15.24       	63.09       	DEM90           	;
 100             	15.24       	31.55       	DEM             	;
 40              	15.24       	12.62       	DEM             	;
 50              	15.24       	12.62       	DEM             	;
 80              	15.24       	31.55       	DEM             	;
 150             	36.576      	12.62       	DEM             	;
 140             	24.384      	12.62       	DEM             	;
 170             	36.576      	12.62       	DEM170          	;
 130             	36.576      	12.62       	DEM             	;
 160             	36.576      	50.47       	DEM             	;
 120             	36.576      	12.62       	DEM             	;
 55              	24.384      	6.31        	DEM55           	;
 75              	24.384      	6.31        	DEM             	;
 115             	24.384      	6.31        	DEM             	;

[RESERVOIRS]
;ID              	Head        	Pattern
 10              	3.048       	                	;

[TANKS]
;ID              	Elevation   	InitLevel   	MinLevel    	MaxLevel    	Diameter    	MinVol      	VolCurve
 65              	0           	66.93       	66.53       	71.53       	21.55       	0           	                	;
 165             	0           	66.93       	66.53       	71.53       	21.55       	0           	                	;
 265             	0           	66.93       	66.53       	71.53       	21.55       	0           	                	;

[PIPES]
;ID              	Node1           	Node2           	Length      	Diameter    	Roughness   	MinorLoss   	Status
 4               	20              	30              	3657.6      	609.6       	120         	0           	Open  	;
 30              	30              	60              	1828.8      	508         	120         	0           	Open  	;
 16              	60              	90              	1828.8      	152.4       	120         	0           	Open  	;
 14              	70              	60              	1828.8      	406.4       	120         	0           	Open  	;
 12              	70              	90              	1828.8      	254         	120         	0           	Open  	;
 2               	20              	70              	3657.6      	609.6       	120         	0           	Open  	;
 6               	20              	110             	3657.6      	457.2       	120         	0           	Open  	;
 48              	110             	100             	1828.8      	304.8       	120         	0           	Open  	;
 24              	100             	90              	1828.8      	508         	120         	0           	Open  	;
 10              	70              	100             	1828.8      	609.6       	120         	0           	Open  	;
 32              	30              	40              	1828.8      	203.2       	120         	0           	Open  	;
 36              	40              	50              	1828.8      	304.8       	120         	0           	Open  	;
 38              	50              	80              	1828.8      	203.2       	120         	0           	Open  	;
 18              	80              	60              	1828.8      	457.2       	120         	0           	Open  	;
 20              	80              	90              	1828.8      	406.4       	120         	0           	Open  	;
 66              	50              	140             	3657.6      	203.2       	120         	0           	Open  	;
 40              	140             	80              	1828.8      	304.8       	120         	0           	Open  	;
 28              	80              	150             	1828.8      	457.2       	120         	0           	Open  	;
 22              	150             	90              	1828.8      	152.4       	120         	0           	Open  	;
 26              	150             	100             	1828.8      	609.6       	120         	0           	Open  	;
 42              	150             	140             	1828.8      	508         	120         	0           	Open  	;
 64              	140             	170             	3657.6      	304.8       	120         	0           	Open  	;
 60              	170             	130             	1828.8      	304.8       	120         	0           	Open  	;
 58              	130             	160             	1828.8      	406.4       	120         	0           	Open  	;
 44              	160             	150             	1828.8      	355.6       	120         	0           	Open  	;
 50              	160             	110             	1828.8      	304.8       	120         	0           	Open  	;
 52              	110             	120             	1828.8      	355.6       	120         	0           	Open  	;
 56              	120             	130             	1828.8      	304.8       	120         	0           	Open  	;
 62              	140             	160             	1828.8      	508         	120         	0           	Open  	;
 46              	100             	160             	1828.8      	457.2       	120         	0           	Open  	;
 34              	50              	30              	2743.2      	355.6       	120         	0           	Open  	;
 78              	65              	60              	30.48       	508         	120         	0           	Open  	;
 80              	165             	160             	30.48       	406.4       	120         	0           	Open  	;
 8               	70              	30              	2743.2      	355.6       	120         	0           	Open  	;
 74              	50              	55              	1828.8      	304.8       	120         	0           	Open  	;
 76              	55              	75              	1828.8      	304.8       	120         	0           	Open  	;
 72              	75              	115             	1828.8      	304.8       	120         	0           	Open  	;
 68              	115             	140             	1828.8      	304.8       	120         	0           	Open  	;
 70              	75              	140             	1828.8      	304.8       	120         	0           	Open  	;
 178             	140             	265             	30.48       	406.4       	120         	0           	Open  	;
 54              	160             	120             	2743.2      	304.8       	120         	0           	Open  	;

[PUMPS]
;ID              	Node1           	Node2           	Parameters
 b2              	10              	20              	HEAD 1	;
 b1              	10              	20              	HEAD 1	;
 b3              	10              	20              	HEAD 1	;

[VALVES]
;ID              	Node1           	Node2           	Diameter    	Type	Setting     	MinorLoss

[TAGS]

[DEMANDS]
;Junction        	Demand      	Pattern         	Category

[STATUS]
;ID              	Status/Setting

[PATTERNS]
;ID              	Multipliers
;General demand pattern
 DEM 0.7 0.7 0.7 0.7 0.7 0.7
 DEM 0.7 0.7 0.7 0.7 0.7 0.7
 DEM 0.7 0.7 0.7 0.7 0.7 0.7
 DEM 0.7 0.7 0.7 0.7 0.7 0.7
 DEM 0.7 0.7 0.7 0.7 0.7 0.7
 DEM 0.7 0.7 0.7 0.7 0.68 0.66
 DEM 0.64 0.62 0.6 0.6 0.6 0.6
 DEM 0.6 0.6 0.6 0.6 0.6 0.6
 DEM 0.6 0.6 0.6 0.6 0.6 0.6
 DEM 0.6 0.6 0.6 0.6 0.6 0.6
 DEM 0.6 0.6 0.6 0.6 0.6 0.6
 DEM 0.6 0.6 0.6 0.6 0.72 0.84
 DEM 0.96 1.08 1.2 1.2 1.2 1.2
 DEM 1.2 1.2 1.2 1.2 1.2 1.2
 DEM 1.2 1.2 1.2 1.2 1.2 1.2
 DEM 1.2 1.2 1.2 1.2 1.2 1.2
 DEM 1.2 1.2 1.2 1.2 1.2 1.2
 DEM 1.2 1.2 1.2 1.2 1.22 1.24
 DEM 1.26 1.28 1.3 1.3 1.3 1.3
 DEM 1.3 1.3 1.3 1.3 1.3 1.3
 DEM 1.3 1.3 1.3 1.3 1.3 1.3
 DEM 1.3 1.3 1.3 1.3 1.3 1.3
 DEM 1.3 1.3 1.3 1.3 1.3 1.3
 DEM 1.3 1.3 1.3 1.3 1.28 1.26
 DEM 1.24 1.22 1.2 1.2 1.2 1.2
 DEM 1.2 1.2 1.2 1.2 1.2 1.2
 DEM 1.2 1.2 1.2 1.2 1.2 1.2
 DEM 1.2 1.2 1.2 1.2 1.2 1.2
 DEM 1.2 1.2 1.2 1.2 1.2 1.2
 DEM 1.2 1.2 1.2 1.2 1.16 1.12
 DEM 1.08 1.04 1 1 1 1
 DEM 1 1 1 1 1 1
 DEM 1 1 1 1 1 1
 DEM 1 1 1 1 1 1
 DEM 1 1 1 1 1 1
 DEM 1 1 1 1 0.98 0.96
 DEM 0.94 0.92 0.9 0.9 0.9 0.9
 DEM 0.9 0.9 0.9 0.9 0.9 0.9
 DEM 0.9 0.9 0.9 0.9 0.9 0.9
 DEM 0.9 0.9 0.9 0.9 0.9 0.9
 DEM 0.9 0.9 0.9 0.9 0.9 0.9
 DEM 0.9 0.9 0.9 0.9 0.86 0.82
 DEM 0.78 0.74 0.7 0.7 0.7 0.7
 DEM 0.7 0.7 0.7 0.7 0.7 0.7
 DEM 0.7 0.7 0.7 0.7 0.7 0.7
 DEM 0.7 0.7 0.7 0.7 0.7 0.7
 DEM 0.7 0.7 0.7 0.7 0.7 0.7
 DEM 0.7 0.7 0.7 0.7 0.7 0.7
;
 p_b1            	1           	1           	1           	1           	1           	1
 p_b1            	1           	1           	0           	0           	1           	1
 p_b1            	1           	0           	1           	1           	1           	0
 p_b1            	0           	0           	0           	1           	1           	0
;
 p_b2            	1           	0           	0           	1           	0           	0
 p_b2            	0           	0           	0           	0           	1           	1
 p_b2            	1           	0           	1           	1           	1           	0
 p_b2            	0           	0           	0           	0           	0           	0
;
 p_b3            	0           	0           	0           	0           	0           	0
 p_b3            	0           	0           	0           	0           	0           	1
 p_b3            	1           	0           	0           	0           	0           	1
 p_b3            	0           	0           	0           	1           	0           	0
;
 tarif           	0.1814      	0.1814      	0.1814      	0.1814      	0.1814      	0.1814
 tarif           	0.1814      	0.3528      	0.3528      	0.3528      	0.3528      	0.3528
 tarif           	0.3528      	0.3528      	0.3528      	0.3528      	0.3528      	0.8097
 tarif           	0.8097      	0.8097      	0.8097      	0.1814      	0.1814      	0.1814
;Demand patter for node 90
 DEM90           	0.7         	0.7         	0.7         	0.6         	0.6         	0.6
 DEM90           	1.2         	1.2         	1.2         	1.3         	1.3         	1.3
 DEM90           	1.2         	1.2         	1.2         	1           	1           	1
 DEM90           	0.9         	0.9         	0.9         	0.7         	0.7         	0.7
;Demand pattern for node 55
 DEM55           	0.7         	0.7         	0.7         	0.6         	0.6         	0.6
 DEM55           	1.2         	1.2         	1.2         	1.3         	1.3         	1.3
 DEM55           	1.2         	1.2         	1.2         	1           	1           	1
 DEM55           	0.9         	0.9         	0.9         	0.7         	0.7         	0.7
;Demand pattern for node 170
 DEM170          	0.7         	0.7         	0.7         	0.6         	0.6         	0.6
 DEM170          	1.2         	1.2         	1.2         	1.3         	1.3         	1.3
 DEM170          	1.2         	1.2         	1.2         	1           	1           	1
 DEM170          	0.9         	0.9         	0.9         	0.7         	0.7         	0.7

[CURVES]
;ID              	X-Value     	Y-Value
;PUMP: PUMP: PUMP: PUMP: PUMP: PUMP: BOMBA: PUMP: PUMP:
 1               	0           	91.44
 1               	126.18      	89.0016
 1               	252.36      	82.296
 1               	378.54      	70.104
 1               	504.72      	55.1688
;PUMP: PUMP: PUMP: PUMP: PUMP: PUMP: RENDIMENTO: PUMP: EFFICIENCY:
 2               	0           	0
 2               	126.18      	50
 2               	252.36      	65
 2               	378.54      	55
 2               	504.72      	40

[CONTROLS]
LINK b1 1.0000 AT TIME 0.0000 HOURS
LINK b1 1.0000 AT TIME 0.0000 HOURS
LINK b1 1.0000 AT TIME 0.0000 HOURS
LINK b1 1.0000 AT TIME 0.0000 HOURS
LINK b1 1.0000 AT TIME 0.0000 HOURS
LINK b1 1.0000 AT TIME 0.0000 HOURS
LINK b1 1.0000 AT TIME 0.0000 HOURS
LINK b1 1.0000 AT TIME 0.0000 HOURS
LINK b1 1.0000 AT TIME 0.0000 HOURS
LINK b1 1.0000 AT TIME 0.0000 HOURS
LINK b1 1.0000 AT TIME 0.0000 HOURS
LINK b1 1.0000 AT TIME 0.0000 HOURS
LINK b1 1.0000 AT TIME 0.0000 HOURS
LINK b1 1.0000 AT TIME 0.0000 HOURS
LINK b1 1.0000 AT TIME 0.0000 HOURS
LINK b1 1.0000 AT TIME 0.0000 HOURS
LINK b1 1.0000 AT TIME 0.0000 HOURS
LINK b1 1.0000 AT TIME 0.0000 HOURS
LINK b1 1.0000 AT TIME 0.0000 HOURS
LINK b1 1.0000 AT TIME 0.0000 HOURS
LINK b1 1.0000 AT TIME 0.0000 HOURS
LINK b1 1.0000 AT TIME 0.0000 HOURS
LINK b1 1.0000 AT TIME 0.0000 HOURS
LINK b1 1.0000 AT TIME 0.0000 HOURS
LINK b1 1.0000 AT TIME 0.0000 HOURS
LINK b1 1.0000 AT TIME 0.0000 HOURS
LINK b1 1.0000 AT TIME 0.0000 HOURS
LINK b1 1.0000 AT TIME 0.0000 HOURS
LINK b1 1.0000 AT TIME 0.0000 HOURS
LINK b1 1.0000 AT TIME 0.0000 HOURS
LINK b1 1.0000 AT TIME 0.0000 HOURS
LINK b1 1.0000 AT TIME 0.0000 HOURS
LINK b1 1.0000 AT TIME 0.0000 HOURS
LINK b1 1.0000 AT TIME 0.0000 HOURS
LINK b1 1.0000 AT TIME 0.0000 HOURS
LINK b1 1.0000 AT TIME 0.0000 HOURS


[RULES]

[ENERGY]
 Global Efficiency  	75
 Global Price       	0
 Demand Charge      	0
 Pump 	b2              	Efficiency	2
 Pump 	b2              	Price     	1
 Pump 	b2              	Pattern   	tarif
 Pump 	b1              	Efficiency	2
 Pump 	b1              	Price     	1
 Pump 	b1              	Pattern   	tarif
 Pump 	b3              	Efficiency	2
 Pump 	b3              	Price     	1
 Pump 	b3              	Pattern   	tarif

[EMITTERS]
;Junction        	Coefficient

[QUALITY]
;Node            	InitQual

[SOURCES]
;Node            	Type        	Quality     	Pattern

[REACTIONS]
;Type     	Pipe/Tank       	Coefficient


[REACTIONS]
 Order Bulk            	1
 Order Tank            	1
 Order Wall            	1
 Global Bulk           	0
 Global Wall           	0
 Limiting Potential    	0
 Roughness Correlation 	0

[MIXING]
;Tank            	Model

[TIMES]
 Duration           	24:00
 Hydraulic Timestep 	0:05
 Quality Timestep   	0:05
 Pattern Timestep   	0:05
 Pattern Start      	0:00
 Report Timestep    	0:05
 Report Start       	0:00
 Start ClockTime    	0:00
 Statistic          	NONE

[REPORT]
 Status             	No
 Summary            	No
 Page               	0

[OPTIONS]
 Units              	LPS
 Headloss           	H-W
 Specific Gravity   	1
 Viscosity          	1
 Trials             	40
 Accuracy           	0.01
 CHECKFREQ          	10
 MAXCHECK           	10
 DAMPLIMIT          	0
 Unbalanced         	Continue 10
 Pattern            	DEM
 Demand Multiplier  	1
 Emitter Exponent   	2
 Quality            	None mg/L
 Diffusivity        	1
 Tolerance          	0.01

[COORDINATES]
;Node            	X-Coord         	Y-Coord
 20              	98.22           	10.00
 30              	98.22           	71.56
 110             	49.33           	10.00
 70              	72.22           	30.67
 60              	72.22           	71.56
 90              	55.56           	53.11
 100             	51.56           	30.89
 40              	98.22           	94.22
 50              	42.44           	94.22
 80              	38.22           	73.78
 150             	31.56           	52.89
 140             	8.22            	66.67
 170             	-16.67          	42.00
 130             	-3.33           	21.11
 160             	8.22            	36.22
 120             	16.00           	8.67
 55              	31.53           	110.59
 75              	11.23           	102.56
 115             	-4.11           	87.46
 10              	118.67          	10.00
 65              	53.17           	81.60
 165             	-1.91           	42.79
 265             	-7.96           	72.25

[VERTICES]
;Link            	X-Coord         	Y-Coord
 b1              	108.27          	19.19
 b3              	107.93          	2.51

[LABELS]
;X-Coord           Y-Coord          Label & Anchor Node

[BACKDROP]
 DIMENSIONS     	-23.44          	3.57            	125.44          	115.68
 UNITS          	None
 FILE
 OFFSET         	0.00            	0.00

[END]
