[TITLE]
 EPANET Example Network 1
A simple example of modeling chlorine decay. Both bulk and
wall reactions are included. 

[JUNCTIONS]
 10  216.4080
 11  216.4080
 12  213.3600
 13  211.8360
 21  213.3600
 22  211.8360
 23  210.3120
 31  213.3600
 32  216.4080

[RESERVOIRS]
 9  243.8400  

[TANKS]
 ; ID, Elevations, Init Level, Min Level, Max Level, Diameter, Vol at Min Level
 ; Seems like this tank does not have a circular floor
 2  259.0800  30.4800  30.4800  45.7200  15.3924  5671.7558  

[PIPES]
 10  10  11  3209.5440  457.2000  100.0000  0.0000  
 11  11  12  1609.3440  355.6000  100.0000  0.0000  
 12  12  13  1609.3440  254.0000  100.0000  0.0000  
 21  21  22  1609.3440  254.0000  100.0000  0.0000  
 22  22  23  1609.3440  304.8000  100.0000  0.0000  
 31  31  32  1609.3440  152.4000  100.0000  0.0000  
 110  2  12  60.9600  457.2000  100.0000  0.0000  
 111  11  21  1609.3440  254.0000  100.0000  0.0000  
 112  12  22  1609.3440  304.8000  100.0000  0.0000  
 113  13  23  1609.3440  203.2000  100.0000  0.0000  
 121  21  31  1609.3440  203.2000  100.0000  0.0000  
 122  22  32  1609.3440  152.4000  100.0000  0.0000  

[PUMPS]
 9  9  10  HEAD 1  PATTERN  2

[VALVES]

[DEMANDS]
 10  0.000000  1  
 11  9.463584  1  
 12  9.463584  1  
 13  6.309056  1  
 21  9.463584  1  
 22  12.618112  1  
 23  9.463584  1  
 31  6.309056  1  
 32  6.309056  1  

[EMITTERS]

[STATUS]

[PATTERNS]
;Demand Pattern
 1  0.9167  0.9333  0.9500  0.9667  0.9833  1.0000 
 1  1.0167  1.0333  1.0500  1.0667  1.0833  1.1000
 1  1.1167  1.1333  1.1500  1.1667  1.1833  1.2000 
 1  1.2167  1.2333  1.2500  1.2667  1.2833  1.3000
 1  1.3167  1.3333  1.3500  1.3667  1.3833  1.4000 
 1  1.4167  1.4333  1.4500  1.4667  1.4833  1.5000
 1  1.5167  1.5333  1.5500  1.5667  1.5833  1.6000 
 1  1.5833  1.5667  1.5500  1.5333  1.5167  1.5000
 1  1.4833  1.4667  1.4500  1.4333  1.4167  1.4000
 1  1.3833  1.3667  1.3500  1.3333  1.3167  1.3000
 1  1.2833  1.2667  1.2500  1.2333  1.2167  1.2000
 1  1.1833  1.1667  1.1500  1.1333  1.1167  1.1000
 1  1.0833  1.0667  1.0500  1.0333  1.0167  1.0000
 1  0.9833  0.9667  0.9500  0.9333  0.9167  0.9000
 1  0.8833  0.8667  0.8500  0.8333  0.8167  0.8000
 1  0.7833  0.7667  0.7500  0.7333  0.7167  0.7000
 1  0.6833  0.6667  0.6500  0.6333  0.6167  0.6000
 1  0.5833  0.5667  0.5500  0.5333  0.5167  0.5000
 1  0.4833  0.4667  0.4500  0.4333  0.4167  0.4000
 1  0.4167  0.4333  0.4500  0.4667  0.4833  0.5000
 1  0.5167  0.5333  0.5500  0.5667  0.5833  0.6000
 1  0.6167  0.6333  0.6500  0.6667  0.6833  0.7000
 1  0.7167  0.7333  0.7500  0.7667  0.7833  0.8000
 1  0.8167  0.8333  0.8500  0.8667  0.8833  0.9000

;Dummy Pump Pattern
 2  1.0000

[CURVES]
;PUMP: Pump Curve for Pump 9
 1  94.6358  76.2000

[CONTROLS]

[RULES]

[QUALITY]
 10  0.500000
 11  0.500000
 12  0.500000
 13  0.500000
 21  0.500000
 22  0.500000
 23  0.500000
 31  0.500000
 32  0.500000
 9  1.000000
 2  1.000000

[SOURCES]

[MIXING]
 2  MIXED  1.0000

[REACTIONS]
 ORDER  BULK  1.00
 ORDER  WALL  1
 ORDER  TANK  1.00
 GLOBAL BULK  -0.500000
 GLOBAL WALL  -1.000000

[ENERGY]
 GLOBAL EFFIC  75.0000
 DEMAND CHARGE  0.0000

[TIMES]
 DURATION  24:00:00
 HYDRAULIC TIMESTEP  0:05:00
 QUALITY TIMESTEP  0:05:00
 REPORT TIMESTEP  0:05:00
 REPORT START  0:00:00
 PATTERN TIMESTEP  0:05:00
 PATTERN START  0:00:00
 RULE TIMESTEP  0:00:06
 START CLOCKTIME  0:00:00
 STATISTIC  NONE

[OPTIONS]
 UNITS  LPS
 PRESSURE  METERS
 HEADLOSS  H-W
 UNBALANCED  CONTINUE 10
 QUALITY  Chlorine mg/L
 DEMAND MULTIPLIER  1.0000
 EMITTER EXPONENT  0.5000
 VISCOSITY  1.000000
 DIFFUSIVITY  1.000000
 SPECIFIC GRAVITY  1.000000
 TRIALS  40
 ACCURACY  0.00100000
 TOLERANCE  0.01000000
 CHECKFREQ  2
 MAXCHECK  10
 DAMPLIMIT  0.00000000

[COORDINATES]
 10  20.000000  70.000000
 11  30.000000  70.000000
 12  50.000000  70.000000
 13  70.000000  70.000000
 21  30.000000  40.000000
 22  50.000000  40.000000
 23  70.000000  40.000000
 31  30.000000  10.000000
 32  50.000000  10.000000
 9  10.000000  70.000000
 2  50.000000  90.000000

[VERTICES]

[TAGS]

[LABELS]
;X-Coord  Y-Coord  Label & Anchor Node
 6.99  73.63  "Source"  
 13.48  68.13  "Pump"  
 43.85  91.21  "Tank"  

[BACKDROP]
 DIMENSIONS  7.00  6.00  73.00  94.00  
 UNITS  None
 FILE  
 OFFSET  0.00  0.00  



[REPORT]
ENERGY YES
STATUS YES

[END]
